46_min.pdb.A
  MOE2006           3D

114116  0  0  1  0  0  0  0  0999 V2000
   -3.8510    0.4261   -3.3784 N   0  0  0  0  0  0  0  0  0  0  0  0
   -4.3120    0.1751   -4.2412 H   0  0  0  0  0  0  0  0  0  0  0  0
   -2.9548   -0.6370   -2.8890 C   0  0  2  0  0  0  0  0  0  0  0  0
   -3.0377   -1.4145   -3.6483 H   0  0  0  0  0  0  0  0  0  0  0  0
   -3.4186   -1.2711   -1.5489 C   0  0  0  0  0  0  0  0  0  0  0  0
   -3.2228   -0.5989   -0.7191 H   0  0  0  0  0  0  0  0  0  0  0  0
   -2.7980   -2.1438   -1.3403 H   0  0  0  0  0  0  0  0  0  0  0  0
   -4.8963   -1.7181   -1.4889 C   0  0  0  0  0  0  0  0  0  0  0  0
   -5.5281   -0.8528   -1.6869 H   0  0  0  0  0  0  0  0  0  0  0  0
   -5.2469   -2.2125   -0.0776 C   0  0  0  0  0  0  0  0  0  0  0  0
   -4.6751   -3.1034    0.1838 H   0  0  0  0  0  0  0  0  0  0  0  0
   -6.3059   -2.4596    0.0015 H   0  0  0  0  0  0  0  0  0  0  0  0
   -5.0313   -1.4510    0.6715 H   0  0  0  0  0  0  0  0  0  0  0  0
   -5.2347   -2.7967   -2.5308 C   0  0  0  0  0  0  0  0  0  0  0  0
   -4.6034   -3.6774   -2.4092 H   0  0  0  0  0  0  0  0  0  0  0  0
   -5.1049   -2.4283   -3.5480 H   0  0  0  0  0  0  0  0  0  0  0  0
   -6.2728   -3.1168   -2.4377 H   0  0  0  0  0  0  0  0  0  0  0  0
   -1.4598   -0.2655   -2.9100 C   0  0  0  0  0  0  0  0  0  0  0  0
   -1.0965    0.8778   -3.1767 O   0  0  0  0  0  0  0  0  0  0  0  0
   -0.5836   -1.2508   -2.6498 N   0  0  0  0  0  0  0  0  0  0  0  0
   -0.9483   -2.1681   -2.4362 H   0  0  0  0  0  0  0  0  0  0  0  0
    0.8727   -1.1089   -2.6793 C   0  0  2  0  0  0  0  0  0  0  0  0
    1.1470   -0.0664   -2.5553 H   0  0  0  0  0  0  0  0  0  0  0  0
    1.4295   -1.5921   -4.0480 C   0  0  0  0  0  0  0  0  0  0  0  0
    2.5120   -1.7160   -3.9824 H   0  0  0  0  0  0  0  0  0  0  0  0
    1.0329   -2.5895   -4.2460 H   0  0  0  0  0  0  0  0  0  0  0  0
    1.1337   -0.6902   -5.2681 C   0  0  0  0  0  0  0  0  0  0  0  0
    0.0698   -0.4589   -5.2898 H   0  0  0  0  0  0  0  0  0  0  0  0
    1.9128    0.6337   -5.2174 C   0  0  0  0  0  0  0  0  0  0  0  0
    2.9893    0.4608   -5.2129 H   0  0  0  0  0  0  0  0  0  0  0  0
    1.6680    1.2102   -4.3289 H   0  0  0  0  0  0  0  0  0  0  0  0
    1.6801    1.2586   -6.0799 H   0  0  0  0  0  0  0  0  0  0  0  0
    1.4461   -1.4334   -6.5757 C   0  0  0  0  0  0  0  0  0  0  0  0
    0.8592   -2.3486   -6.6590 H   0  0  0  0  0  0  0  0  0  0  0  0
    1.2133   -0.8165   -7.4442 H   0  0  0  0  0  0  0  0  0  0  0  0
    2.5001   -1.7070   -6.6344 H   0  0  0  0  0  0  0  0  0  0  0  0
    1.5077   -1.8947   -1.5139 C   0  0  0  0  0  0  0  0  0  0  0  0
    1.9144   -3.0380   -1.7179 O   0  0  0  0  0  0  0  0  0  0  0  0
    1.6337   -1.3652   -0.2802 N   0  0  0  0  0  0  0  0  0  0  0  0
    2.1072   -1.9680    0.3776 H   0  0  0  0  0  0  0  0  0  0  0  0
    1.1552   -0.1176    0.3282 C   0  0  2  0  0  0  0  0  0  0  0  0
    1.5835   -0.1892    1.3276 H   0  0  0  0  0  0  0  0  0  0  0  0
   -0.3885   -0.1187    0.4954 C   0  0  0  0  0  0  0  0  0  0  0  0
   -0.8061   -1.0988    0.2603 H   0  0  0  0  0  0  0  0  0  0  0  0
   -0.8255    0.5568   -0.2406 H   0  0  0  0  0  0  0  0  0  0  0  0
   -0.8623    0.2919    1.9080 C   0  0  0  0  0  0  0  0  0  0  0  0
   -0.2617    1.1347    2.2504 H   0  0  0  0  0  0  0  0  0  0  0  0
   -2.3175    0.7710    1.8879 C   0  0  0  0  0  0  0  0  0  0  0  0
   -2.4365    1.6255    1.2217 H   0  0  0  0  0  0  0  0  0  0  0  0
   -2.9922   -0.0170    1.5537 H   0  0  0  0  0  0  0  0  0  0  0  0
   -2.6411    1.0856    2.8804 H   0  0  0  0  0  0  0  0  0  0  0  0
   -0.6914   -0.8523    2.9212 C   0  0  0  0  0  0  0  0  0  0  0  0
   -1.0041   -0.5416    3.9183 H   0  0  0  0  0  0  0  0  0  0  0  0
    0.3463   -1.1768    2.9935 H   0  0  0  0  0  0  0  0  0  0  0  0
   -1.2904   -1.7196    2.6419 H   0  0  0  0  0  0  0  0  0  0  0  0
    1.7522    1.2035   -0.2040 C   0  0  0  0  0  0  0  0  0  0  0  0
    2.6901    1.1898   -0.9996 O   0  0  0  0  0  0  0  0  0  0  0  0
    1.1864    2.3223    0.2897 N   0  0  0  0  0  0  0  0  0  0  0  0
    0.4215    2.1442    0.9247 H   0  0  0  0  0  0  0  0  0  0  0  0
    1.4677    3.7556    0.1255 C   0  0  1  0  0  0  0  0  0  0  0  0
    1.4134    4.1194    1.1527 H   0  0  0  0  0  0  0  0  0  0  0  0
    2.8908    4.1620   -0.3584 C   0  0  0  0  0  0  0  0  0  0  0  0
    2.8122    5.1546   -0.8051 H   0  0  0  0  0  0  0  0  0  0  0  0
    3.2567    3.5345   -1.1670 H   0  0  0  0  0  0  0  0  0  0  0  0
    3.9603    4.2727    0.7539 C   0  0  0  0  0  0  0  0  0  0  0  0
    3.5744    4.9380    1.5273 H   0  0  0  0  0  0  0  0  0  0  0  0
    5.2407    4.9213    0.2053 C   0  0  0  0  0  0  0  0  0  0  0  0
    5.9851    5.0505    0.9916 H   0  0  0  0  0  0  0  0  0  0  0  0
    5.6884    4.3109   -0.5797 H   0  0  0  0  0  0  0  0  0  0  0  0
    5.0363    5.9065   -0.2148 H   0  0  0  0  0  0  0  0  0  0  0  0
    4.2943    2.9290    1.4216 C   0  0  0  0  0  0  0  0  0  0  0  0
    4.6642    2.2049    0.6954 H   0  0  0  0  0  0  0  0  0  0  0  0
    5.0635    3.0530    2.1842 H   0  0  0  0  0  0  0  0  0  0  0  0
    3.4239    2.4994    1.9164 H   0  0  0  0  0  0  0  0  0  0  0  0
    0.2984    4.4878   -0.5693 C   0  0  0  0  0  0  0  0  0  0  0  0
   -0.4388    5.1791    0.1353 O   0  0  0  0  0  0  0  0  0  0  0  0
    0.0770    4.3638   -1.9010 N   0  0  0  0  0  0  0  0  0  0  0  0
   -1.0333    5.0270   -2.6088 C   0  0  1  0  0  0  0  0  0  0  0  0
   -1.1470    6.0479   -2.2396 H   0  0  0  0  0  0  0  0  0  0  0  0
   -0.5685    5.0990   -4.0675 C   0  0  0  0  0  0  0  0  0  0  0  0
   -1.3822    5.1668   -4.7909 H   0  0  0  0  0  0  0  0  0  0  0  0
    0.0692    5.9731   -4.2069 H   0  0  0  0  0  0  0  0  0  0  0  0
    0.2559    3.8345   -4.2319 C   0  0  0  0  0  0  0  0  0  0  0  0
    0.9745    3.8975   -5.0493 H   0  0  0  0  0  0  0  0  0  0  0  0
   -0.4075    2.9966   -4.4414 H   0  0  0  0  0  0  0  0  0  0  0  0
    0.9247    3.6576   -2.8650 C   0  0  0  0  0  0  0  0  0  0  0  0
    1.0375    2.6058   -2.6123 H   0  0  0  0  0  0  0  0  0  0  0  0
    1.9103    4.1199   -2.8936 H   0  0  0  0  0  0  0  0  0  0  0  0
   -2.4089    4.3404   -2.4543 C   0  0  0  0  0  0  0  0  0  0  0  0
   -3.4110    4.9148   -2.8785 O   0  0  0  0  0  0  0  0  0  0  0  0
   -2.4483    3.1320   -1.8593 N   0  0  0  0  0  0  0  0  0  0  0  0
   -1.5624    2.7659   -1.5410 H   0  0  0  0  0  0  0  0  0  0  0  0
   -3.5989    2.2516   -1.6304 C   0  0  1  0  0  0  0  0  0  0  0  0
   -3.1906    1.4487   -1.0304 H   0  0  0  0  0  0  0  0  0  0  0  0
   -4.6786    2.9525   -0.7619 C   0  0  0  0  0  0  0  0  0  0  0  0
   -4.1877    3.4639    0.0677 H   0  0  0  0  0  0  0  0  0  0  0  0
   -5.1818    3.7389   -1.3254 H   0  0  0  0  0  0  0  0  0  0  0  0
   -5.7467    2.0406   -0.1751 C   0  0  0  0  0  0  0  0  0  0  0  0
   -6.8643    1.6520   -0.9446 C   0  0  0  0  0  0  0  0  0  0  0  0
   -6.9754    2.0014   -1.9599 H   0  0  0  0  0  0  0  0  0  0  0  0
   -7.8399    0.7954   -0.3997 C   0  0  0  0  0  0  0  0  0  0  0  0
   -8.6838    0.4910   -1.0010 H   0  0  0  0  0  0  0  0  0  0  0  0
   -7.7176    0.3360    0.9275 C   0  0  0  0  0  0  0  0  0  0  0  0
   -8.6371   -0.5417    1.4402 O   0  0  0  0  0  0  0  0  0  0  0  0
   -9.6494    0.2141    2.0513 C   0  0  0  0  0  0  0  0  0  0  0  0
  -10.3978   -0.4569    2.4727 H   0  0  0  0  0  0  0  0  0  0  0  0
   -9.2525    0.8232    2.8657 H   0  0  0  0  0  0  0  0  0  0  0  0
  -10.1515    0.8608    1.3291 H   0  0  0  0  0  0  0  0  0  0  0  0
   -6.6119    0.7370    1.7046 C   0  0  0  0  0  0  0  0  0  0  0  0
   -6.5114    0.3888    2.7221 H   0  0  0  0  0  0  0  0  0  0  0  0
   -5.6347    1.5891    1.1562 C   0  0  0  0  0  0  0  0  0  0  0  0
   -4.7990    1.8966    1.7652 H   0  0  0  0  0  0  0  0  0  0  0  0
   -4.1585    1.6696   -2.9493 C   0  0  0  0  0  0  0  0  0  0  0  0
   -4.9120    2.3668   -3.6266 O   0  0  0  0  0  0  0  0  0  0  0  0
  1  2  1  0  0  0  0
  1  3  1  0  0  0  0
  1113  1  0  0  0  0
  3  4  1  0  0  0  0
  3  5  1  0  0  0  0
  3 18  1  0  0  0  0
  5  6  1  0  0  0  0
  5  7  1  0  0  0  0
  5  8  1  0  0  0  0
  8  9  1  0  0  0  0
  8 10  1  0  0  0  0
  8 14  1  0  0  0  0
 10 11  1  0  0  0  0
 10 12  1  0  0  0  0
 10 13  1  0  0  0  0
 14 15  1  0  0  0  0
 14 16  1  0  0  0  0
 14 17  1  0  0  0  0
 18 20  1  0  0  0  0
 18 19  2  0  0  0  0
 20 21  1  0  0  0  0
 20 22  1  0  0  0  0
 22 23  1  0  0  0  0
 22 24  1  0  0  0  0
 22 37  1  0  0  0  0
 24 25  1  0  0  0  0
 24 26  1  0  0  0  0
 24 27  1  0  0  0  0
 27 28  1  0  0  0  0
 27 29  1  0  0  0  0
 27 33  1  0  0  0  0
 29 30  1  0  0  0  0
 29 31  1  0  0  0  0
 29 32  1  0  0  0  0
 33 34  1  0  0  0  0
 33 35  1  0  0  0  0
 33 36  1  0  0  0  0
 37 39  1  0  0  0  0
 37 38  2  0  0  0  0
 39 40  1  0  0  0  0
 39 41  1  0  0  0  0
 41 42  1  0  0  0  0
 41 43  1  0  0  0  0
 41 56  1  0  0  0  0
 43 44  1  0  0  0  0
 43 45  1  0  0  0  0
 43 46  1  0  0  0  0
 46 47  1  0  0  0  0
 46 48  1  0  0  0  0
 46 52  1  0  0  0  0
 48 49  1  0  0  0  0
 48 50  1  0  0  0  0
 48 51  1  0  0  0  0
 52 53  1  0  0  0  0
 52 54  1  0  0  0  0
 52 55  1  0  0  0  0
 56 58  1  0  0  0  0
 56 57  2  0  0  0  0
 58 59  1  0  0  0  0
 58 60  1  0  0  0  0
 60 61  1  0  0  0  0
 60 62  1  0  0  0  0
 60 75  1  0  0  0  0
 62 63  1  0  0  0  0
 62 64  1  0  0  0  0
 62 65  1  0  0  0  0
 65 66  1  0  0  0  0
 65 67  1  0  0  0  0
 65 71  1  0  0  0  0
 67 68  1  0  0  0  0
 67 69  1  0  0  0  0
 67 70  1  0  0  0  0
 71 72  1  0  0  0  0
 71 73  1  0  0  0  0
 71 74  1  0  0  0  0
 75 77  1  0  0  0  0
 75 76  2  0  0  0  0
 77 86  1  0  0  0  0
 77 78  1  0  0  0  0
 78 79  1  0  0  0  0
 78 80  1  0  0  0  0
 78 89  1  0  0  0  0
 80 81  1  0  0  0  0
 80 82  1  0  0  0  0
 80 83  1  0  0  0  0
 83 84  1  0  0  0  0
 83 85  1  0  0  0  0
 83 86  1  0  0  0  0
 86 87  1  0  0  0  0
 86 88  1  0  0  0  0
 89 91  1  0  0  0  0
 89 90  2  0  0  0  0
 91 92  1  0  0  0  0
 91 93  1  0  0  0  0
 93 94  1  0  0  0  0
 93 95  1  0  0  0  0
 93113  1  0  0  0  0
 95 96  1  0  0  0  0
 95 97  1  0  0  0  0
 95 98  1  0  0  0  0
 98 99  1  0  0  0  0
 98111  2  0  0  0  0
 99100  1  0  0  0  0
 99101  2  0  0  0  0
101102  1  0  0  0  0
101103  1  0  0  0  0
103109  2  0  0  0  0
103104  1  0  0  0  0
104105  1  0  0  0  0
105106  1  0  0  0  0
105107  1  0  0  0  0
105108  1  0  0  0  0
109110  1  0  0  0  0
109111  1  0  0  0  0
111112  1  0  0  0  0
113114  2  0  0  0  0
M  END
$$$$
