120939
  MOE2006           3D

 65 70  0  0  1  0  0  0  0  0999 V2000
    4.5840    1.1820   -1.2370 C   0  0  0  0  0  0  0  0  0  0  0  0
    5.3840    2.0030   -1.9870 O   0  0  0  0  0  0  0  0  0  0  0  0
    6.1110    1.4200   -2.2940 H   0  0  0  0  0  0  0  0  0  0  0  0
   -0.0170    1.3740    0.6340 C   0  0  0  0  0  0  0  0  0  0  0  0
   -1.1770    2.2590    0.5380 C   0  0  0  0  0  0  0  0  0  0  0  0
   -2.4690    1.8300   -0.1410 C   0  0  0  0  0  0  0  0  0  0  0  0
   -3.3720    0.9110    0.4160 C   0  0  0  0  0  0  0  0  0  0  0  0
   -4.0060   -0.0880   -0.4100 C   0  0  0  0  0  0  0  0  0  0  0  0
   -4.1370    0.1670   -1.7720 C   0  0  0  0  0  0  0  0  0  0  0  0
   -4.6600   -0.7870   -2.6010 O   0  0  0  0  0  0  0  0  0  0  0  0
   -4.4640   -1.6490   -2.1570 H   0  0  0  0  0  0  0  0  0  0  0  0
   -1.5460   -4.2970    0.6050 O   0  0  0  0  0  0  0  0  0  0  0  0
   -1.3140   -4.6520    1.4840 H   0  0  0  0  0  0  0  0  0  0  0  0
   -3.7940   -2.4970   -0.9590 O   0  0  0  0  0  0  0  0  0  0  0  0
   -3.4620   -3.3450   -0.5950 H   0  0  0  0  0  0  0  0  0  0  0  0
   -3.8850   -1.5870    0.1320 C   0  0  1  0  0  0  0  0  0  0  0  0
   -4.7630   -1.8130    0.7470 H   0  0  0  0  0  0  0  0  0  0  0  0
   -2.5840   -1.4430    0.9350 C   0  0  2  0  0  0  0  0  0  0  0  0
   -2.1430   -0.8290    0.1480 H   0  0  0  0  0  0  0  0  0  0  0  0
   -1.1840   -2.0000    1.1840 C   0  0  1  0  0  0  0  0  0  0  0  0
   -1.0140   -2.1940    2.2510 H   0  0  0  0  0  0  0  0  0  0  0  0
   -0.7090   -3.1720    0.3370 C   0  0  1  0  0  0  0  0  0  0  0  0
   -0.8290   -2.9150   -0.7230 H   0  0  0  0  0  0  0  0  0  0  0  0
    0.8120   -3.4500    0.5920 C   0  0  1  0  0  0  0  0  0  0  0  0
    1.0000   -3.6250    1.6590 H   0  0  0  0  0  0  0  0  0  0  0  0
    1.2610   -4.6920   -0.1870 C   0  0  0  0  0  0  0  0  0  0  0  0
    0.6830   -5.5760    0.0960 H   0  0  0  0  0  0  0  0  0  0  0  0
    1.1630   -4.5380   -1.2670 H   0  0  0  0  0  0  0  0  0  0  0  0
    2.6340   -4.9670    0.0830 O   0  0  0  0  0  0  0  0  0  0  0  0
    3.1180   -4.1520   -0.1340 H   0  0  0  0  0  0  0  0  0  0  0  0
   -2.9520   -0.6500    2.0950 O   0  0  0  0  0  0  0  0  0  0  0  0
   -3.2970    0.6380    1.8480 C   0  0  0  0  0  0  0  0  0  0  0  0
   -3.5000    1.5030    2.6830 O   0  0  0  0  0  0  0  0  0  0  0  0
   -0.3270   -0.8700    0.7510 O   0  0  0  0  0  0  0  0  0  0  0  0
   -0.2560    0.2240    1.5240 C   0  0  0  0  0  0  0  0  0  0  0  0
   -0.4450    0.3160    2.7240 O   0  0  0  0  0  0  0  0  0  0  0  0
   -3.6610    1.6250   -3.6230 O   0  0  0  0  0  0  0  0  0  0  0  0
   -3.0810    2.4050   -3.7400 H   0  0  0  0  0  0  0  0  0  0  0  0
   -3.5520    1.3180   -2.2920 C   0  0  0  0  0  0  0  0  0  0  0  0
   -2.6920    2.1060   -1.5000 C   0  0  0  0  0  0  0  0  0  0  0  0
   -2.0270    3.1070   -2.1700 O   0  0  0  0  0  0  0  0  0  0  0  0
   -1.7360    3.7750   -1.5180 H   0  0  0  0  0  0  0  0  0  0  0  0
    1.6510   -2.3370    0.1210 O   0  0  0  0  0  0  0  0  0  0  0  0
    2.1380   -1.4190    1.0200 C   0  0  0  0  0  0  0  0  0  0  0  0
    2.8560   -0.3650    0.2810 C   0  0  0  0  0  0  0  0  0  0  0  0
    4.0220   -0.9260   -0.3360 C   0  0  0  0  0  0  0  0  0  0  0  0
    4.2440   -1.9830   -0.2050 H   0  0  0  0  0  0  0  0  0  0  0  0
    4.8730   -0.1500   -1.0950 C   0  0  0  0  0  0  0  0  0  0  0  0
    5.9870   -0.6330   -1.7110 O   0  0  0  0  0  0  0  0  0  0  0  0
    6.0790   -1.5830   -1.5200 H   0  0  0  0  0  0  0  0  0  0  0  0
    2.0550   -1.4590    2.2350 O   0  0  0  0  0  0  0  0  0  0  0  0
   -2.0020    4.4870    0.8440 O   0  0  0  0  0  0  0  0  0  0  0  0
   -2.7500    4.0880    1.3270 H   0  0  0  0  0  0  0  0  0  0  0  0
   -0.9730    3.5900    0.8980 C   0  0  0  0  0  0  0  0  0  0  0  0
    0.2930    4.0190    1.2710 C   0  0  0  0  0  0  0  0  0  0  0  0
    0.4980    5.3150    1.6730 O   0  0  0  0  0  0  0  0  0  0  0  0
    1.4580    5.3680    1.8600 H   0  0  0  0  0  0  0  0  0  0  0  0
    2.6070    3.8030    1.4280 O   0  0  0  0  0  0  0  0  0  0  0  0
    3.1490    3.6210    0.6260 H   0  0  0  0  0  0  0  0  0  0  0  0
    1.4100    3.1710    1.1600 C   0  0  0  0  0  0  0  0  0  0  0  0
    1.3280    1.8210    0.7400 C   0  0  0  0  0  0  0  0  0  0  0  0
    2.5380    1.0320    0.1950 C   0  0  0  0  0  0  0  0  0  0  0  0
    3.4670    1.7490   -0.6170 C   0  0  0  0  0  0  0  0  0  0  0  0
    3.3430    3.1110   -0.8360 O   0  0  0  0  0  0  0  0  0  0  0  0
    4.0320    3.3030   -1.5150 H   0  0  0  0  0  0  0  0  0  0  0  0
  1 48  2  0  0  0  0
  1 63  1  0  0  0  0
  1  2  1  0  0  0  0
  2  3  1  0  0  0  0
  4 61  2  0  0  0  0
  4  5  1  0  0  0  0
  4 35  1  0  0  0  0
  5  6  1  0  0  0  0
  5 54  2  0  0  0  0
  6  7  1  0  0  0  0
  6 40  2  0  0  0  0
  7  8  2  0  0  0  0
  7 32  1  0  0  0  0
  8 16  1  0  0  0  0
  8  9  1  0  0  0  0
  9 39  2  0  0  0  0
  9 10  1  0  0  0  0
 10 11  1  0  0  0  0
 12 13  1  0  0  0  0
 12 22  1  0  0  0  0
 14 15  1  0  0  0  0
 14 16  1  0  0  0  0
 16 17  1  0  0  0  0
 16 18  1  0  0  0  0
 18 19  1  0  0  0  0
 18 20  1  0  0  0  0
 18 31  1  0  0  0  0
 20 21  1  0  0  0  0
 20 22  1  0  0  0  0
 20 34  1  0  0  0  0
 22 23  1  0  0  0  0
 22 24  1  0  0  0  0
 24 25  1  0  0  0  0
 24 26  1  0  0  0  0
 24 43  1  0  0  0  0
 26 27  1  0  0  0  0
 26 28  1  0  0  0  0
 26 29  1  0  0  0  0
 29 30  1  0  0  0  0
 31 32  1  0  0  0  0
 32 33  2  0  0  0  0
 34 35  1  0  0  0  0
 35 36  2  0  0  0  0
 37 38  1  0  0  0  0
 37 39  1  0  0  0  0
 39 40  1  0  0  0  0
 40 41  1  0  0  0  0
 41 42  1  0  0  0  0
 43 44  1  0  0  0  0
 44 45  1  0  0  0  0
 44 51  2  0  0  0  0
 45 46  2  0  0  0  0
 45 62  1  0  0  0  0
 46 47  1  0  0  0  0
 46 48  1  0  0  0  0
 48 49  1  0  0  0  0
 49 50  1  0  0  0  0
 52 53  1  0  0  0  0
 52 54  1  0  0  0  0
 54 55  1  0  0  0  0
 55 60  2  0  0  0  0
 55 56  1  0  0  0  0
 56 57  1  0  0  0  0
 58 59  1  0  0  0  0
 58 60  1  0  0  0  0
 60 61  1  0  0  0  0
 61 62  1  0  0  0  0
 62 63  2  0  0  0  0
 63 64  1  0  0  0  0
 64 65  1  0  0  0  0
M  END
$$$$
